21   
From 1-reactant-freq.out: Frame 1 / 127, Energy=    -722.8072640856
C        0.1415324700    0.7816846136   -1.6865120263
C        0.4898078303    0.9955592315   -3.1693852003
O        0.2726716143    2.1526937122   -3.6254330378
O        0.9473776637    0.0304573499   -3.8329443863
C        0.5448558620   -0.5693422914   -1.1053302314
H       -0.9409415034    0.9339613606   -1.6014222488
H        0.6039505764    1.5992773770   -1.1235525966
C        0.2301744986   -0.7988496839    0.3777139377
H        1.6230763654   -0.7202299353   -1.2257527093
H        0.0475978157   -1.3722009797   -1.6615896203
C       -1.2634181188   -0.6699236547    0.7012913302
H       -1.6740633433    0.2984587150    0.4003083751
H       -1.4053923735   -0.7903110144    1.7791425288
H       -1.8176742892   -1.4617046186    0.1858198184
O        0.7682984315   -1.9284370036    0.8656253454
O        0.9142892660    0.3741130715    1.0699556270
O        1.2476118799   -0.1157124467    2.3736098489
H        1.2236713191   -1.1052083421    2.1012789825
O       -0.8513002830    0.5245318498    4.2627800277
H       -0.1742334300    0.2862405062    3.6066697127
O       -1.1420788326    1.9243554631    3.9122038621
