18   
From 2-transition-freq.out: Frame 1 / 109, Energy=    -571.8005691337
O        0.8353580276    0.3146786961   -0.6992694387
C       -0.5118414529    0.5197382275   -0.8709788997
H       -0.7304818016    1.2739841916   -1.6596454728
H       -0.9839208174    0.9299279003    0.0519898287
H       -1.1635113206   -1.4957097235   -0.4517571401
C       -2.7826918211   -0.4601423967   -1.4455386350
O       -3.5282603635   -0.5045837890   -0.4269663587
O       -3.1692120338   -0.1458519304   -2.6061762507
O        0.8104666924    1.5647822761    1.7229141487
H        2.8351359587   -0.7648052643    0.6259967831
C        2.7048372194    0.1713247350    1.1674221324
H        3.2091179812    0.0977139971    2.1380674999
H        3.1443491157    0.9915741616    0.6015998431
C        1.2506533697    0.4593413012    1.4167176042
H       -0.8747074528   -1.1605627346   -2.1781617356
O        0.5672999336   -0.6625497499    1.7965054926
H       -0.3155274507   -0.3703312104    2.0678093627
C       -1.2970637830   -0.7585286931   -1.2505287618
