18   
From 3-product-noPT-freq.out: Frame 1 / 109, Energy=    -571.8225437649
O       -0.2062626506    0.5930440079   -2.9217890986
C       -0.9793976066    0.6958802960   -1.7927891354
H       -1.8720350043    1.3509792477   -1.9337980431
H       -0.4328286424    1.1445194159   -0.9315130508
H       -0.6706866087   -1.3276763290   -1.1042585291
C       -2.3614384095   -0.5122500332   -0.0385237379
O       -1.7388146426   -0.4440857004    1.0834598673
O       -3.6001016157   -0.4099446370   -0.1308092658
O        0.8971013713    1.4236788957    1.8021673715
H        3.2199133927   -0.0631086571    0.4584185764
C        2.8940370901    0.1240456411    1.4857156009
H        3.1387119730   -0.7619301445    2.0766225973
H        3.4147468631    0.9951600119    1.8815758104
C        1.4023277120    0.3506305225    1.4942124407
H       -2.1396762538   -1.1092029906   -2.0884691439
O        0.7131696393   -0.7047018562    1.1336915365
H       -0.3513580451   -0.5323548756    1.0923194255
C       -1.5249448080   -0.6698871517   -1.2967813149
