18   
From 1-reactant-freq.out: Frame 1 / 109, Energy=    -571.7100076209
C       -0.0885450879    0.6935673279   -1.1126865642
C        0.4256027600    1.4774144749   -2.3317731346
O       -0.1971911103    2.5407393591   -2.5991654653
O        1.4026774663    1.0207807896   -2.9774568272
C        0.7583522893   -0.5112326514   -0.7203923678
H       -1.1147399700    0.3881319441   -1.3460171976
H       -0.1559233856    1.3835401550   -0.2656469496
C        0.2757269965   -1.2774766425    0.4885657143
H        1.7963468444   -0.2218273315   -0.5400814637
H        0.7696643547   -1.2374432966   -1.5454879457
C       -1.2065438787   -1.4718886029    0.6644037719
H       -1.6762432202   -0.5073525882    0.8719837343
H       -1.4009175523   -2.1622849287    1.4861444060
H       -1.6414040605   -1.8580914175   -0.2638216023
O        1.0741607281   -1.8085090102    1.2497394501
O        0.3391289846    1.1201486873    2.2065442160
O        0.8244155591    0.2729440262    3.3038406248
H        1.0031231588   -0.5579228185    2.8401465903
