18   
From 2-transition-freq.out: Frame 1 / 109, Energy=    -571.7097092228
C       -0.1913007151    0.9678648696   -1.0016724892
C        0.3002199399    1.8167807470   -2.1860951739
O       -0.3088372302    2.9061062585   -2.3696339312
O        1.2455279317    1.3829249517   -2.8923184881
C        0.6456840342   -0.2686519000   -0.7049548039
H       -1.2271001549    0.6908525875   -1.2290726644
H       -0.2305874273    1.6073369163   -0.1145401781
C        0.1991847626   -1.1160503328    0.4646897284
H        1.6924166879   -0.0038155447   -0.5390335339
H        0.6272034754   -0.9426046177   -1.5736917455
C       -1.2776111215   -1.2901983390    0.7053908458
H       -1.7920816356   -0.3313672503    0.7604819543
H       -1.4413191056   -1.8594829285    1.6216043660
H       -1.6953182956   -1.8468093694   -0.1435067340
O        1.0126791619   -1.8114368972    1.0679081474
O        0.4061873317    0.8764524956    2.1617782246
O        0.9313390844    0.0223936958    3.2292044000
H        1.1036949265   -0.8003179153    2.7434685522
