18   
From 1-reactant-freq.out: Frame 1 / 109, Energy=    -571.7266677782
C        2.0078351379    1.5435570458    0.3235128568
C        1.0699582368    0.3938107598   -0.0709485059
H        2.2682679340    1.5094688133    1.3869173638
H        2.9259054073    1.4844311941   -0.2690920613
H        1.5195799862    2.5010070823    0.1135407976
C       -0.1089655462    0.2990726905    0.9088619794
C       -1.1962996713   -0.6848338676    0.4899284112
H        0.2917153391    0.0227860867    1.8928394923
H       -0.5436328081    1.2988686315    1.0138100831
H       -0.7505937852   -1.6108489456    0.1178955245
H       -1.7953069000   -0.9530006840    1.3711681246
O        0.7633514506    0.3852193927   -1.3714744508
O        1.8419402589   -0.8892192819    0.2414457901
O        2.5560378704   -1.2010413123   -0.9603501296
H        1.9443999673   -0.6666233928   -1.5718690247
C       -2.2026471095   -0.1655834099   -0.5473913079
O       -2.6374425805   -0.9962355976   -1.3931186515
O       -2.5797162800    1.0329992273   -0.4553632820
