18   
From 1-reactant-grad.out: Frame 1 / 1, Energy=    -571.7251703192
C        2.5555969670    1.4185141324    0.5530553217
O        3.0998565010    2.5030956891    0.2019613001
O        3.0684705252    0.5726459378    1.3305596566
C        1.1565355079    1.1524121971   -0.0237279748
H        0.4993451952    1.9505970925    0.3363626133
H        1.2194237969    1.2893375559   -1.1085083531
C        0.5554663822   -0.2049404231    0.3058808288
H        1.2295413973   -1.0002279946   -0.0362199656
H        0.4680898027   -0.3172869911    1.3926694146
C       -0.8247758546   -0.4751983106   -0.3092936272
O       -0.7893606519   -0.4049966769   -1.7103007167
H       -1.1991599101    0.5241570247   -1.7981638422
O       -1.7953815156    0.4992412367    0.1373700820
O       -1.8771704377    1.5667365887   -0.8463131839
C       -1.3498327283   -1.8287989832    0.1442835734
H       -2.3100628493   -2.0299314559   -0.3376963933
H       -0.6420729544   -2.6187439573   -0.1241717515
H       -1.4852043017   -1.8395100730    1.2301315186
