18   
From 2-transition-freq.out: Frame 1 / 109, Energy=    -571.6738229670
C        2.1217562363    1.7281259927    0.0674809121
O        2.9777767620    2.4671820194   -0.5620882945
O        1.8721532446    1.9407231616    1.3192592226
C        1.4111441030    0.6954570177   -0.6401376098
H       -0.1630680801    1.7630606841    0.2100272316
H        1.8497010636    0.4282357734   -1.6032882540
C        0.7194299893   -0.4342668646    0.0970169778
H        1.0779601520   -1.4145501996   -0.2514959519
H        0.9165467481   -0.3836679861    1.1742962461
C       -0.8127960817   -0.4720052473   -0.0928916135
O       -1.1189349232   -0.1873275399   -1.4271501771
H       -0.4143780851    0.4497132263   -1.6844262868
O       -1.4711151228    0.4826933368    0.7780643986
O       -1.1291494981    1.8231173939    0.4103226941
C       -1.4449215127   -1.7883778155    0.3121302124
H       -2.5287418966   -1.7515550339    0.1725323550
H       -1.0328619376   -2.5887187056   -0.3061529433
H       -1.2261658738   -2.0072268839    1.3605982011
