18   
From 3-product-grad.out: Frame 1 / 1, Energy=    -571.6890467688
C        1.6952718353    2.0017252797    0.0631193107
O        2.4989267610    2.8983697048   -0.3869269872
O        1.0709842412    2.2152733115    1.2036570712
C        1.4415285452    0.7911317163   -0.6388137798
H       -0.2787920933    1.7051783906    1.0871394238
H        2.1298125038    0.5734003597   -1.4555708839
C        0.8145821079   -0.3991916244    0.0481317451
H        1.2450687595   -1.3198868839   -0.3663895658
H        1.0062755648   -0.4214666919    1.1301682917
C       -0.7228578451   -0.5367579575   -0.1389202374
O       -1.0722591902    0.0182295376   -1.3698438433
H       -0.3210413207    0.6563406178   -1.5191289186
O       -1.4564670914    0.0932009469    0.9321656143
O       -1.2960966908    1.5109049736    0.9174789994
C       -1.1935260809   -1.9786655192   -0.0559762886
H       -2.2807401604   -2.0347381734   -0.1607567099
H       -0.7279027245   -2.5547198398   -0.8588759797
H       -0.9054861121   -2.4184346402    0.9032195479
