18   
From 2-transition-freq.out: Frame 1 / 109, Energy=    -571.7240949118
C        0.0825282881    1.1749647692   -0.9170757067
C        0.6367491073    1.7550983211   -2.2283796483
O        0.4920663464    2.9983385665   -2.3886191575
O        1.1671115828    0.9726811663   -3.0577472409
C        0.5671674615   -0.2288089381   -0.5695283086
H       -1.0100050581    1.1916575086   -1.0164963877
H        0.3242647085    1.8769638795   -0.1131521009
C        0.0589997397   -0.7859303602    0.7593893989
H        1.6619021356   -0.2433887734   -0.5238621297
H        0.2699318059   -0.9296570078   -1.3571967970
C       -1.4651175141   -0.9097493912    0.8186157633
H       -1.9594534143    0.0513322617    0.6509905571
H       -1.7524863699   -1.2849462260    1.8051247213
H       -1.8115732360   -1.6196978448    0.0602632774
O        0.6699212250   -1.9730272475    1.0925338013
O        0.4777951680    0.1804129676    1.8018615107
O        0.7519401800   -0.6301229635    2.9636590850
H        0.8382578438   -1.5961206877    2.2196193622
