18   
From 1-reactant-freq.out: Frame 1 / 109, Energy=    -571.7274584617
C       -0.8938873010    0.4371620195    0.0401107246
O       -1.4335970683    0.3851767721    1.2641497202
C       -1.3010321764    1.6949931722   -0.7416109852
H       -2.3922593646    1.7429237684   -0.8078404680
H       -0.9457767999    2.5849906717   -0.2118388167
H       -0.8828835124    1.6980397954   -1.7538316478
C        0.6258862761    0.2292916764   -0.0385004575
H        0.9115768372    0.1294783931   -1.0941439117
H        1.0985398427    1.1490946599    0.3230432126
C        1.1459137621   -0.9620045984    0.7524674085
H        0.6656750193   -1.8861744884    0.4191395210
H        0.8810714142   -0.8455371200    1.8105594496
C        2.6674604721   -1.1652065873    0.7010976519
O        3.3972939986   -0.1739044334    0.4371338416
O        3.0900412327   -2.3268801743    0.9584879199
O       -1.4280027941   -0.7389673239   -0.7669952465
O       -2.7574549157   -0.9555244015   -0.2802324397
H       -2.6012405097   -0.5161147443    0.6203150601
