18   
From 2-transition-freq.out: Frame 1 / 109, Energy=    -571.6684484651
C       -0.9680515023    0.6374150962    0.2381687418
O       -1.0072180789    0.8985671626    1.4831833636
C       -1.2558579135    1.7755336112   -0.7369651314
H       -2.3148161009    2.0365255954   -0.6461020192
H       -0.6587679890    2.6516732662   -0.4734373278
H       -1.0515134313    1.4895612002   -1.7714523184
C        0.6268303988   -0.0545993738   -0.2988625752
H        0.6522020555   -0.3315743241   -1.3511450137
H        1.1063782224    0.9183230915   -0.1681607080
C        1.2105432440   -1.0798011896    0.6350525946
H        0.8846774738   -2.0893318397    0.3768778523
H        0.8529434956   -0.8728195184    1.6519655149
C        2.7509519688   -1.0575927258    0.7055281753
O        3.3365407893    0.0340241719    0.4887658620
O        3.3113823688   -2.1423938689    1.0119436533
O       -1.3057119186   -0.5863466608   -0.2245932127
O       -3.1639433779   -0.8047104171   -0.0961548324
H       -3.1748697049   -0.9593432768    0.8555173813
