11   
From 2-transition-freq.out: Frame 1 / 67, Energy=    -417.7528532583
C       -0.4007256044    0.8054896901    0.1306443147
C        0.6804837895    0.8300147908    1.2258859976
O        0.6299844739   -0.0504814555    2.1220845879
O        1.5242735978    1.7652564690    1.1683403321
C       -0.8547292971   -0.5489632868   -0.2823993520
H       -0.0391321555    1.3691361696   -0.7367547695
H       -1.2423132277    1.3963491180    0.5348128136
H       -1.5335668294   -0.6467537143   -1.1230108122
H       -0.8036668943   -1.3674958415    0.4251830544
O        1.0108542214   -1.1532187753   -1.4930506926
O        1.0285379257   -2.3993331642   -1.9717354741
