18   
From 3-product-freq.out: Frame 1 / 109, Energy=    -571.6756127147
C        1.0650252415    1.5173815797   -2.5368314245
O        0.6412437425    2.1186436062   -3.5608830279
O        2.2716169453    1.4120486493   -2.1999346899
C       -0.0081087322    0.8792521689   -1.6403357560
H       -1.9990384762    0.2307216395    1.6885144885
H       -0.6493041057    0.2645946988   -2.2819309755
C        0.5330046991    0.0568884832   -0.4792064716
H        1.1159491570   -0.7918724810   -0.8463435896
H        1.1881708243    0.6649354954    0.1505799148
C       -0.5838330331   -0.4891280781    0.4546156287
O       -1.3803393071   -1.3131925969   -0.2797779616
H       -0.6400789036    1.6909453888   -1.2647137577
O       -1.2590791315    0.5810411672    1.0328361550
O       -3.0512585563   -0.1980840732    2.6349604196
C        0.0650177696   -1.3913708655    1.5424887371
H       -0.7145659662   -1.7922204272    2.1941269363
H        0.6235521724   -2.2104620549    1.0865123110
H        0.7399879908   -0.7653961527    2.1307441888
