18   
From 2-transition-freq.out: Frame 1 / 109, Energy=    -571.6856797911
C        1.6714554994    1.7855928409    0.5922311814
O        2.6583202137    2.5594515595    0.3733577296
O        0.8193864905    2.0470765491    1.5353996997
C        1.4571169369    0.6070767591   -0.2395514131
H        0.3192956627    0.7628346426   -1.2154379317
H        2.3644334065    0.2962467814   -0.7610337968
C        0.6083479639   -0.5291574235    0.2993716226
H        1.0473430416   -1.4942533882    0.0201157988
H        0.4964348411   -0.5279284569    1.3900486687
C       -0.8157799913   -0.4670131120   -0.3570348236
O       -0.7074642270    0.3072071605   -1.4783229748
H       -0.5924488607    1.5477972536    1.1721459061
O       -1.7929893681    0.0722738648    0.5908059797
O       -1.5633506278    1.4545615271    0.8621673959
C       -1.3913540896   -1.8476648942   -0.6393272667
H       -2.3961903339   -1.7676581855   -1.0644564240
H       -0.7433536098   -2.3588874664   -1.3557952510
H       -1.4392046979   -2.4475550611    0.2753133913
