18   
From 3-product-grad.out: Frame 1 / 1, Energy=    -571.6889094437
C        1.4826684650    1.9289524410    0.6942480283
O        2.3773365300    2.8434967218    0.5607136031
O        0.5342134559    2.0888229656    1.5953149506
C        1.4720136423    0.7553980095   -0.1049519822
H        0.0683896405    0.6979252392   -1.5015096629
H        2.3747644856    0.5740703988   -0.6882823576
C        0.6626137712   -0.4580370307    0.2854718644
H        1.2036595859   -1.3632787190   -0.0192968122
H        0.5042042560   -0.5365506717    1.3702586865
C       -0.7383090232   -0.5633842677   -0.3812682128
O       -0.6869776789    0.0605882927   -1.6279339567
H       -0.7068423021    1.6023643683    1.0452638595
O       -1.7729753725    0.0171492658    0.4402549495
O       -1.6230449958    1.4312394217    0.5604880762
C       -1.2059679985   -2.0011052597   -0.5298813986
H       -2.2054579643   -2.0369098782   -0.9723785944
H       -0.5098482831   -2.5394153402   -1.1770814305
H       -1.2311897754   -2.4958606255    0.4453150845
