18   
From 1-reactant-grad.out: Frame 1 / 1, Energy=    -571.6832510979
C       -2.4062393994    0.7560923394    0.8548581569
C       -0.1747544032    1.0131927503    0.0297716509
C        0.8711391979    0.1937819589   -0.6893982853
H       -0.4537113851    1.9170040470   -0.5218378138
H        0.1811169082    1.2992396570    1.0220264302
H        1.7235761001    0.8915789618   -0.8577608939
O       -1.3804843433    0.2010012624    0.1942735090
C       -3.5786690524   -0.1927719097    0.9471066890
H       -4.3857735097    0.2708648599    1.5160453245
H       -3.9345175629   -0.4461639201   -0.0573857813
H       -3.2706397069   -1.1251181819    1.4316351115
O       -2.3861901232    1.8850629498    1.3170982223
H        0.4927558299   -0.1524185246   -1.6595684250
C        1.4165220987   -0.9957759910    0.1378639476
O        1.6319678701   -2.0757180711   -0.4794531526
O        1.6498639270   -0.7678374305    1.3615688539
O        3.2274925856    2.3274474575   -0.5258744060
H        3.1036848033    1.8202784688    0.2958444745
