21   
From 3-product-freq.out: Frame 1 / 127, Energy=    -723.1687138842
C       -0.3085324018    2.9751450296   -3.5906380872
O       -0.8865719458    2.6177461922   -4.6472830770
O        0.5790022472    3.8577937366   -3.4840288716
C       -0.7127125217    2.2220895752   -2.2777120244
H       -1.7461361190    1.8887057773   -2.3914857157
H       -0.6536773936    2.9337785307   -1.4528704974
C        0.1893373470    1.0720607559   -2.0419131611
H        1.1306331789    1.2089021543   -1.5265658697
H        0.0191232928    0.1289042194   -2.5449752742
C        1.1327625534    2.4137718080    1.3505753455
C       -0.3408224975    2.0582850848    1.5416199360
H       -0.9838749100    2.9219097331    1.3804635573
H       -0.5146739594    1.6468696545    2.5365892539
H       -0.6086244973    1.2857915527    0.8164805974
O        1.9808638440    1.5528538909    1.7352339261
O        1.4174434732    3.5130698179    0.8165201030
H        1.5074642261    0.0431856954    2.5079041894
O        1.3731902306   -0.8352553943    2.9358485418
H        0.4349168623   -0.8610383853    3.2545732544
O       -1.1817592058   -1.0126314048    3.8714195315
O       -1.4110549014    0.0969348008    4.5785957256
