19   
From 3-product-freq.out: Frame 1 / 115, Energy=    -646.9621021322
C       -2.4969400900    0.6916302414   -1.1181481305
H       -2.6809200399    1.5449913314   -0.4603702744
H       -2.1174457264    1.0572767904   -2.0755443337
H       -3.4318804402    0.1524525555   -1.2818162152
C       -1.4852051477   -0.2440540859   -0.4855285227
C        0.7873991051   -0.1488199785    0.3092537118
H        1.0500667530   -1.0671161440   -0.2268171969
H        0.4819538620   -0.4272912544    1.3225333815
C        1.9632896160    0.8069449108    0.3420973993
H        1.6749875569    1.7347264436    0.8494997924
H        2.2446366637    1.0887865698   -0.6793302810
C        3.2182080858    0.2600927633    1.0396191339
O       -1.9772959547   -0.6245814037    0.8044944612
O       -1.2876800778   -1.3958884729   -1.2106069046
H       -1.3601116958   -2.0614525151   -0.4147688838
O       -0.2909486750    0.5123024199   -0.3526121249
O        4.2001168001    1.0467683745    1.1054672795
O        3.1880135203   -0.9136488893    1.4898414867
O       -1.6737896154   -2.0240306769    1.0375159477
