21   
From 3-product-freq.out: Frame 1 / 127, Energy=    -722.8366456798
C        0.3808550800    0.5166521633   -2.0571849685
C        0.6533999427    0.6900341199   -3.5625872368
O        0.4134572655    1.8355723364   -4.0332468201
O        1.0894286805   -0.2887240608   -4.2200489313
C        0.6385360142   -0.8802305461   -1.5198776672
H       -0.6575618227    0.8198425060   -1.8868134910
H        1.0035284536    1.2425284692   -1.5252642670
C        0.4312888356   -0.9611143777    0.0815469938
H        1.6736505799   -1.1735966256   -1.7109482120
H       -0.0187038409   -1.6116553825   -1.9949513569
C       -1.0924063491   -0.7454559366    0.3691001882
H       -1.3583780191    0.2933231497    0.1638916135
H       -1.2719183496   -0.9482686509    1.4287962731
H       -1.7110218662   -1.4133396202   -0.2355348943
O        0.7018853989   -2.2733213551    0.2941946351
O        1.1966821872   -0.0680415780    0.7170827518
O        1.1170172897   -0.3902027466    3.3531789191
H        1.1323311670   -0.2762832975    2.3583251868
O       -1.2761150540    0.7180523828    4.1739317051
H        0.2583844693   -0.0097935682    3.6512960986
O       -1.3175773202    1.8268483969    3.4563888748
