14   
From 3-product-freq.out: Frame 1 / 85, Energy=    -494.2715164494
C       -0.4293337993    0.5481844110    1.0011154516
C       -0.1689358101    1.8610298368    0.2422744403
O       -0.3118421386    1.8404834791   -1.0074259891
O        0.1420396446    2.8680820527    0.9300893199
C        0.1354849877   -0.6751569239    0.3077341479
H       -0.0440372527    0.6232054298    2.0202054027
H       -0.2089128971   -0.7263305227   -0.7284435130
H       -0.1464932031   -1.5991597716    0.8266084052
O        1.5610902913   -0.6341128481    0.1740092772
O        2.1370841906   -0.7503413033    1.4740079336
H       -1.5169627487    0.4193360870    1.0717738824
O       -3.4191426365   -0.9032429538   -1.1119323313
H       -2.6941576462   -0.2714002003   -1.0604926096
H        2.2967978291   -1.7049383132    1.5424420735
