18   
From 2-transition-freq.out: Frame 1 / 109, Energy=    -571.6687109865
C        1.0542098780    1.4093348854   -2.4609990292
O        0.6036938542    1.7683528642   -3.5827264951
O        2.2580844331    1.4876111962   -2.1027759950
C        0.0251855184    0.8726969202   -1.4524913993
H       -2.1803786246    0.1479946665    1.7632684629
H       -0.7803647401    0.3883460127   -2.0100673339
C        0.6005430419   -0.0579785768   -0.3993664586
H        0.9228844130   -1.0044246716   -0.8432137420
H        1.4675022561    0.4020597454    0.0824073554
C       -0.3854855232   -0.3584631541    0.8242841566
O       -1.3976464514   -1.0263614423    0.1712526517
H       -0.4143793443    1.7482557895   -0.9592048503
O       -0.7897459289    0.7603211960    1.4554789522
O       -2.9566712547   -0.5334984300    1.7288739715
C        0.3619572226   -1.3309467084    1.7689124846
H       -0.3096800854   -1.6145035323    2.5845142020
H        0.6853323031   -2.2319302513    1.2398441914
H        1.2349590314   -0.8268665085    2.1920088747
