13   
From 1-reactant-freq.out: Frame 1 / 79, Energy=    -419.1028284935
C        0.2032994775    0.5091934175    0.3966634910
C       -0.2299114598    1.4301480855   -0.6337608820
O       -0.3567941017    1.0310301277   -1.8528103476
O       -0.5461671548    2.6384526641   -0.3023482803
C        0.8948717709   -0.7509513113    0.0563660911
H        0.5065190865    0.9761323874    1.3382118739
H        0.4034067235   -1.2523291118   -0.7870046249
H        0.9021399098   -1.4449341428    0.9095504837
O        2.3126189565   -0.5573233096   -0.3289476976
H       -1.4734507982   -0.1282009675    0.7645010065
O       -2.4023722771   -0.5044790746    0.9752959990
H       -2.8695758997   -0.4953931244    0.1323745293
H        2.6807680362   -1.4279435929   -0.5259731962
