18   
From 1-reactant-grad.out: Frame 1 / 1, Energy=    -571.6889823278
C        2.3932668969    0.9971837596    0.3831541870
O        3.5155559377    1.5440147662    0.0732978590
O        1.8978703887    1.1926822989    1.5886591809
C        1.6589916096    0.2023324519   -0.5372697559
H        0.4638773681    1.3554731177    1.4670194042
H        2.1984117688   -0.0919488270   -1.4375462186
C        0.5562097015   -0.7224238511   -0.0796186771
H        0.5524131108   -1.6175079292   -0.7150629993
H        0.6886472885   -1.0719888081    0.9539532328
C       -0.8812722478   -0.1372707075   -0.1743936623
O       -0.9201679485    0.7778558544   -1.2262921373
H        0.0370595853    1.0475820387   -1.2882799868
O       -1.2926841718    0.4861585899    1.0602405315
O       -0.5313466207    1.6612677784    1.3351615433
C       -1.9362960184   -1.2130534929   -0.3680619409
H       -2.9358015311   -0.7704802141   -0.4030672214
H       -1.7455216776   -1.7371744932   -1.3072902035
H       -1.8967078077   -1.9369250353    0.4510646525
