18   
From 2-transition-freq.out: Frame 1 / 109, Energy=    -571.6314628546
C        2.4573677186    1.1046812088    0.2166409658
O        3.3157164051    1.7995872484   -0.4244731683
O        2.3524880017    1.1524361411    1.4983752295
C        1.5794988456    0.2121296583   -0.5149313954
H        0.7040850598    1.4325882472    1.5107213886
H        1.7709927048    0.1382529227   -1.5853530245
C        0.5829158938   -0.6406941461    0.0502520769
H        0.5226165326   -1.6162606539   -0.4417612945
H        0.6356009274   -0.7447145632    1.1359931836
C       -1.0425672267   -0.1202292647   -0.2069079439
O       -1.0917647054    0.3575946902   -1.5634352866
H       -0.2749827213    0.8615086387   -1.6946561305
O       -1.4701473378    0.7573953437    0.6509046299
O       -0.1798180210    1.8667891858    1.5101424193
C       -1.8595757810   -1.4108700447   -0.1131877216
H       -2.9207041430   -1.1985129694   -0.2737971343
H       -1.5203482395   -2.1249016170   -0.8685328977
H       -1.7327667639   -1.8498804258    0.8792544236
