19   
From 1-reactant-freq.out: Frame 1 / 115, Energy=    -646.9601873763
C       -2.4837265555    0.8054852987   -1.0604535157
H       -2.2801762877    1.8631095557   -0.8742098689
H       -2.4721150455    0.6271006480   -2.1383295708
H       -3.4671246218    0.5509517618   -0.6608650417
C       -1.4311915867   -0.0514711853   -0.3844243750
C        0.9758328443   -0.3584447587   -0.5274814187
H        1.6156172305   -0.5123248548   -1.4030372013
H        0.7222389045   -1.3396745659   -0.1229637029
C        1.7080332788    0.4836117059    0.5067836064
H        1.0636870084    0.6141501741    1.3822192994
H        1.9015923064    1.4828402648    0.1018295325
C        3.0358153603   -0.1131952223    0.9888107283
O       -1.4200938598    0.2842689880    1.0038563700
O       -1.6886391334   -1.4004292031   -0.4800362333
H       -1.4958638000   -1.6397351099    0.5070298653
O       -0.2016938117    0.2959803658   -1.0090940223
O        3.8098549380    0.6653212626    1.6087688582
O        3.2586500285   -1.3304760831    0.7571336023
O       -1.1506088799   -0.9114025902    1.7804775412
