21   
From 1-reactant-freq.out: Frame 1 / 127, Energy=    -722.8362561459
C        0.6136923152    0.5039571774   -3.9959078415
O        0.1857625435    1.3693561480   -4.8072526258
O        1.2554519540   -0.5317763248   -4.3063709525
C        0.2978027754    0.7641807153   -2.5112824322
H       -0.7942107703    0.7840444763   -2.4271192279
H        0.6392975887    1.7762860362   -2.2756326515
C        0.9000877845   -0.2406195278   -1.5484230284
H        1.9899695622   -0.2548376154   -1.6223579763
H        0.5326398300   -1.2514731317   -1.7405757791
C        0.5832758011   -0.0324149680    0.0381463778
C       -0.9719949514   -0.0656541125    0.2021625311
H       -1.4578834632    0.7492814786   -0.3377102715
H       -1.1982127960    0.0264528665    1.2680415049
H       -1.3489402956   -1.0256864991   -0.1597359806
O        1.1673652399   -1.0273995684    0.7152613804
O        1.0282510155    1.2189228852    0.2539013107
H        1.0697637834   -0.7863690983    2.3622075282
O        1.0420136800   -0.6785871995    3.3556721495
H        0.1835758568   -0.2398361816    3.5602146392
O       -1.3193486578    0.6014714420    3.9881941370
O       -1.0741572383    1.8523702348    3.6406162740
