21   
From 3-product-freq.out: Frame 1 / 127, Energy=    -722.8734527069
C        1.2260187121    0.8083142067   -4.3447431156
O        0.2952824610    1.4233778576   -4.9280226376
O        2.1656443195    0.1915621214   -4.9058661547
C        1.2205953329    0.8650285172   -2.8019530315
H        0.2079516791    1.0892660948   -2.4544078839
H        1.8213514796    1.7589740628   -2.5500623204
C        1.7705563243   -0.3315482620   -2.1166260548
H        2.5804343017   -0.8937256874   -2.5668982740
H        1.4423495481   -0.5909430940   -1.1152440467
C       -0.9361316173    0.1475828647    0.3070478661
C       -1.9107719259   -0.2243568550   -0.8090175686
H       -2.2904742140    0.6592332730   -1.3246974035
H       -2.7491717017   -0.7864746441   -0.3865375750
H       -1.4084642405   -0.8780645672   -1.5286451779
O       -0.4169548047   -0.8186520559    0.9401510655
O       -0.7111128178    1.3614129740    0.5283459553
H        0.6246632991   -0.4296141826    2.3244054343
O        1.2301749229   -0.3021692589    3.0901602315
H        0.6769283199    0.0887921974    3.8100952323
O       -0.3249879139    0.7682559528    5.0619398980
O       -1.4956520076    0.7926246354    4.4500289371
