19   
From 2-transition-freq.out: Frame 1 / 115, Energy=    -646.9495646613
C       -1.3575252028   -0.9929580839   -1.3076220696
C       -2.2339720822   -0.7404326584   -2.5440621922
O       -3.0338660089   -1.6608556696   -2.8586439614
O       -2.1016504893    0.3554735609   -3.1468174247
C       -0.2830543029    0.0565227576   -1.0837913796
H       -0.8968118603   -1.9814090840   -1.4114714371
H       -2.0159074467   -1.0434371812   -0.4333614751
O        0.5595889371   -0.2938269122    0.0243613976
H       -0.7178709113    1.0411047449   -0.9110429304
H        0.3815382283    0.1156277146   -1.9492673482
C        0.2437965408    0.2445299883    1.2345279975
C        1.1650904332   -0.2981470230    2.2964155921
H        0.8681032765   -1.3301627512    2.5176599978
H        1.0688940708    0.3003389024    3.2019483609
H        2.2008904893   -0.2989785314    1.9557633929
O       -0.8743899389    0.6994780915    1.4764284297
O        1.2648543900    2.0690491225    1.0247924895
O        2.6318805758    1.9468584000    0.5494137876
H        3.1304113016    1.8112246122    1.3647687727
