19   
From 3-product-freq.out: Frame 1 / 115, Energy=    -646.9610182287
C       -1.1876411392   -0.7439408563   -1.6308375602
C       -1.9899356487   -0.2109067287   -2.8277903701
O       -2.4382076381   -1.0783204091   -3.6250445535
O       -2.1427276614    1.0324398838   -2.9418914211
C       -0.7564939051    0.3092384577   -0.6274479388
H       -0.3072685940   -1.2637608803   -2.0280573170
H       -1.7948228811   -1.5076592262   -1.1314773105
O       -0.0411185883   -0.3425494229    0.4120904044
H       -1.6308662868    0.8289561163   -0.2209420976
H       -0.1194478138    1.0599278185   -1.1097410149
C        0.4636737467    0.5231772144    1.4462677261
C        1.1325120936   -0.4174368219    2.4516757271
H        0.3562800705   -1.0124486542    2.9404631198
H        1.6473608391    0.1793418631    3.2093407441
H        1.8454703341   -1.0966106947    1.9774832317
O       -0.3726493992    1.3878832512    1.9254128340
O        1.5480397937    1.3641905267    0.8026141078
O        2.5455190658    0.5682068441    0.1522841637
H        3.2237562713    0.4785973476    0.8373433137
