18   
From 3-product-freq.out: Frame 1 / 109, Energy=    -571.8401626916
C       -2.5985751481   -0.2802614065   -0.5691083054
C       -1.8438262691    0.5904719730    0.4306506328
H       -3.1600616071   -1.0692754136   -0.0659475400
H       -3.2722605941    0.3295485689   -1.1761551439
H       -1.8708508083   -0.7430200473   -1.2445544593
C        1.8742925828   -0.2179715888   -1.0340355699
C        1.3159236921   -1.1255862853   -0.2413023520
H        1.7937462980   -0.3019689508   -2.1144194862
H        2.4204461754    0.6306794016   -0.6310804823
H        1.3930505596   -1.0382758514    0.8407489626
H        0.5385238806    2.2302382662    2.3794398379
O       -1.3865390352    1.6892572786   -0.0093452909
O       -1.6991818917    0.1723710764    1.6029133066
O        0.5267281512    2.7342003959    1.5585916363
H       -0.2061527394    2.3261567691    1.0233659991
C        0.5362334187   -2.3254113289   -0.7482514667
O        0.0684317686   -3.0869189234    0.1398996359
O        0.4105964040   -2.4741530322   -1.9896542694
