18   
From 1-reactant-freq.out: Frame 1 / 109, Energy=    -571.8140661041
C       -0.5845941601   -1.6486433058    0.6594130020
C       -1.6624606615   -2.7059261262    0.3700651765
O       -1.4255645855   -3.8665900865    0.7935396443
O       -2.6899218043   -2.3431943697   -0.2563922124
C       -0.9109358886   -0.2822024251    0.0991508736
H        0.3644313196   -2.0060330063    0.2454354398
H       -0.4521098435   -1.5881785973    1.7451285553
O        0.1851947613    0.5965049176    0.4526219683
H       -1.8333453878    0.1215138724    0.5217369055
H       -1.0056819740   -0.3021463801   -0.9887124383
C        0.1199774383    1.8483885440   -0.0051956974
C        1.3327571985    2.6470689398    0.3781545492
H        1.5450378641    2.5248095846    1.4422462086
H        1.1748382326    3.6977794129    0.1395425708
H        2.1922274627    2.2691033637   -0.1832155060
O       -0.8111486951    2.2677500321   -0.6613926514
O        1.3694191781    0.5091884336   -3.0030640687
H        0.5733733314    0.9061060485   -2.6341842753
