18   
From 2-transition-freq.out: Frame 1 / 109, Energy=    -571.8022927020
C       -0.4145495416   -1.8216165947    0.7743300517
C       -1.5717537952   -2.8305026394    0.7023353861
O       -1.3657228904   -3.9465585792    1.2483796539
O       -2.6284284471   -2.4854512509    0.1144737446
C       -0.7024203578   -0.4869274322    0.1181404703
H        0.4645236757   -2.2850044451    0.3124175116
H       -0.1659257874   -1.6712945434    1.8310915806
O        0.4624326554    0.3289425804    0.2713984245
H       -1.5623951677    0.0025620908    0.5827031853
H       -0.9173283186   -0.6069440670   -0.9486953398
C        0.3925694485    1.5779836538   -0.2874018957
C        1.6282782235    2.3685015968    0.0655864346
H        1.5322833662    2.7059045512    1.1044355165
H        1.7007535708    3.2397038999   -0.5842985117
H        2.5287227881    1.7616291120   -0.0271369878
O       -0.7000668630    2.1093111605   -0.5101233970
O        1.0887732243    1.0912620432   -2.1773382761
H        0.2302542164    0.9484988635   -2.5902975520
