10   
From 1-reactant-freq.out: Frame 1 / 61, Energy=    -342.6673977718
C       -0.4350414667   -0.7992623103    1.2242518464
C        0.4509799725   -0.7483841465    0.2357998061
H       -0.9104936550   -1.7318541510    1.5151211344
H       -0.7089513935    0.1011241903    1.7675656307
H        0.7238248300   -1.6496365401   -0.3096187860
C        1.1456382896    0.5256500228   -0.2116607291
O        1.9715339246    0.3942880529   -1.1543976811
O        0.8597104265    1.5989337771    0.3752070657
O       -2.5337859729    0.5776176854   -1.5870928101
H       -1.8606358832    0.2435590433   -0.9850707274
