10   
From 3-product-freq.out: Frame 1 / 61, Energy=    -342.6488207357
C       -0.8320366220   -0.3437303380    0.5696024402
C        0.4886764597   -0.4484553468   -0.0656461184
H       -1.1461456709   -1.2891712276    1.0313280734
H       -0.8629514931    0.4403113002    1.3352022743
H        0.8039446285   -1.4203741629   -0.4455411571
C        1.3820803213    0.6553081569   -0.2304857721
O        2.5262421621    0.4707314191   -0.8213094693
O        1.0659082161    1.8334220346    0.2094305940
O       -1.9435365580   -0.0021169024   -0.3704699081
H       -1.4817863153    0.1036725303   -1.2115570314
