19   
From 1-reactant-freq.out: Frame 1 / 115, Energy=    -646.9667830359
C       -2.6158626764    0.3702193368   -1.0076411029
H       -2.8948818871    1.1307089350   -0.2726376553
H       -2.3506549015    0.8662256196   -1.9453375509
H       -3.4666048186   -0.2923183482   -1.1805715615
C       -1.4295422973   -0.4554090847   -0.5228888643
C        0.8383073015   -0.0417239919    0.1890038944
H        1.2212162722   -0.7935236769   -0.5099123416
H        0.6676366364   -0.5355794206    1.1526019043
C        1.8275332673    1.0978505196    0.3400909065
H        1.4255694028    1.8502428371    1.0294732839
H        1.9610368199    1.6043484949   -0.6225717684
C        3.2167609446    0.6934568810    0.8561171311
O       -1.8530284030   -0.9201176296    0.8608566100
O       -1.0892859789   -1.4916866983   -1.2440949498
H       -1.1515119730   -2.4095084778    0.0461382689
O       -0.3825087934    0.5027405626   -0.2981347770
O        4.0792282541    1.6115310260    0.8991492086
O        3.4036139891   -0.5011228375    1.2024246922
O       -1.4127076696   -2.2729743575    1.0151810450
