21
CDFT-CI Energy state 1:  -722.7620332609
C        0.0419821171    0.8003944009   -1.8234001406
C        0.3426798993    0.9748480439   -3.3211962284
O        0.0818877966    2.1103022940   -3.8096214806
O        0.8059829744    0.0010116675   -3.9685743309
C        0.5482132115   -0.4902201761   -1.1885252473
H       -1.0473033432    0.8794160415   -1.7208851867
H        0.4540161237    1.6720837245   -1.3044971239
H        1.6310711312   -0.5772805451   -1.3326156524
H        0.0901414571   -1.3521610599   -1.6881704982
C        0.2902628250   -0.6758488962    0.3291518812
C       -1.2160013599   -0.6114876526    0.6474536995
H       -1.6607038716    0.3481123830    0.3635379005
H       -1.3562403740   -0.7540880064    1.7227448493
H       -1.7454893413   -1.4120830982    0.1182315786
O        0.8415423414   -1.8326495073    0.7844409701
O        0.9353452673    0.4754292411    0.9302377390
O        1.1964523849   -0.0951238611    2.6224434994
H        1.1653693858   -1.0068507851    2.2095782615
H       -0.0305211272    0.2150959747    3.5198819388
O       -0.7883892504    0.4547970681    4.1640133589
O       -1.0940106710    1.7664146920    3.8659609795
