13   
From 3-product-freq.out: Frame 1 / 79, Energy=    -419.1315849205
C       -0.3012746060    0.5995121361    1.5483982112
C       -0.4410339527    1.6509798415    0.4336929040
O       -0.6810149283    1.2313143831   -0.7278327793
O       -0.3337113321    2.8600721958    0.7689044956
C        0.5398261851   -0.5965458582    1.1565796783
H        0.1102132553    1.0678762933    2.4472061520
H        0.1422991374   -1.0492694578    0.2416793958
H        0.5208796633   -1.3480751603    1.9562640246
O        1.8846131757   -0.1494426256    0.9409840656
H       -1.3103832271    0.2447452833    1.7917090162
O       -3.0658781132   -1.2115479317   -0.4590016461
H       -2.3673627268   -0.5469333980   -0.4697453228
H        2.4080349278   -0.8998243895    0.6384877610
