18   
From 3-product-freq.out: Frame 1 / 109, Energy=    -571.8093054720
C       -1.5667699201    1.6699070658    1.0823751939
O       -2.4791137511    2.1460642168    1.7265371188
C       -0.9941201782    2.3170294822   -0.1474461410
H       -1.4832747629    3.2774229451   -0.2989794578
H        0.0844352865    2.4592155723   -0.0432756004
H       -1.1647442935    1.6759825439   -1.0170213742
C        0.0451529684   -0.1165570373    0.7725080300
H       -0.2261658558   -0.2251044109   -0.2794509673
H        0.9284401679    0.5211444238    0.8527572616
C        0.2795795670   -1.4666996395    1.4126362593
H       -0.6304017744   -2.0728268166    1.3443700679
H        0.4994836728   -1.3438427522    2.4783986951
C        1.4323957398   -2.2577974202    0.7729684103
O        2.0516353875   -1.7273512705   -0.1839680306
O        1.6649461288   -3.3896128466    1.2691068958
O       -1.0515090280    0.5042719290    1.4904416126
O       -3.2810527778   -0.9906489985   -0.7115905710
H       -2.7970833773   -0.7946228960    0.0972626283
