38   
From 2-transition-freq.out: Frame 1 / 229, Energy=   -2229.8888932700
C        1.2161418976    1.5388728249   -0.1620967906
C        0.9765803089    0.0781733900   -0.4578971488
H        1.7025626435    1.6500830346    0.8115216201
H        1.8583546030    1.9765803525   -0.9352087288
H        0.2606780505    2.0660956931   -0.1510378376
C       -0.1815714144   -0.6255700720    0.7732475167
C       -1.3895309618   -0.9887042914    0.1002596908
H        0.3725608915   -1.4448955868    1.2294981031
H       -0.2255832116    0.2435425278    1.4311333837
H       -0.5393472915   -0.5504954253   -1.3887286387
H       -1.6106925163   -2.0408815716   -0.0657985147
O        0.3469922256   -0.1301705188   -1.6859516676
O        2.0004563460   -0.7414961736   -0.2463293676
O        3.3920218254   -0.3494216799   -1.1656243105
H        3.7490318698    0.3611711772   -0.6118005969
C       -2.4772204704   -0.0308600019   -0.0921327909
O       -3.5987074757   -0.4528072327   -0.5496686729
O       -2.2811449389    1.2064910801    0.1784759520
K       -4.6830189312    1.9729213036   -0.6057302196
K        1.9474437983   -2.0585524430   -2.9061181239
O        2.9047135665    0.3820203158   -3.9182150464
H        2.1413085542    0.9895863904   -3.9568497128
H        3.1991720664    0.4292624953   -2.9933448427
O        4.6905940463   -2.6752780287   -0.3818179676
H        5.6242999043   -2.5417685499   -0.1828005665
H        4.3357314539   -1.7887113152   -0.6078812693
O        1.1307367265   -4.6453861867   -2.5822021784
H        2.0728643285   -4.8464597876   -2.4472538080
H        0.6438361774   -5.2206525105   -1.9829735959
O        3.8487948836   -4.0829595116   -2.5556657220
H        4.5390955301   -4.4450052469   -3.1217749272
H        4.3023635521   -3.7084380313   -1.7680790585
O        3.1892285736   -0.6347409019    2.4078532825
H        2.5351928065   -0.1369792484    2.9114397700
H        2.8036041948   -0.7067024325    1.5206843034
O        0.4728509390    1.7812770736   -3.6776119888
H        0.4413003840    2.6861906429   -3.3469693808
H        0.2899561975    1.2105708618   -2.9033148408
