38   
From 3-product-grad.out: Frame 1 / 1, Energy=   -2230.0547524803
C        0.3952724250    0.8060922863   -0.1761544526
C        0.1065510249   -0.4601351223   -0.9179997753
H        1.3757414801    0.7452764742    0.2957143743
H        0.3635210863    1.6517569870   -0.8679478803
H       -0.3795051891    0.9486375792    0.5852157668
C       -0.5340703715   -1.6581559922    2.3223545215
C       -1.7505768765   -1.7075323758    1.7905449291
H        0.0789119515   -2.5499395350    2.4234989902
H       -0.1169515206   -0.7161560159    2.6687840251
H       -1.2037056614   -1.2709957388   -2.0238053718
H       -2.1708881379   -2.6482304711    1.4408903120
O       -1.0593335225   -0.4159942983   -1.5833894102
O        0.8117880726   -1.4502710977   -0.9403596182
O        3.5500592651    2.0548916098   -1.6352214445
H        3.1229409570    2.3964164662   -0.8438434797
C       -2.6367265888   -0.4943330183    1.6221749908
O       -3.7673879674   -0.6899896553    1.0957380188
O       -2.2068752678    0.6311023769    2.0006393877
K       -4.4053756954    1.9216853659    1.1381557951
K        3.5410502680   -0.8617562615   -1.6994986366
O        2.0243918079    0.8062774705   -3.3632423672
H        1.1332690673    1.1783812761   -3.4581595854
H        2.5189131009    1.4017388422   -2.7252525917
O        5.6884114123    0.9334258668   -1.1866616714
H        6.0273002005    1.1304326062   -0.3083561110
H        4.7769418620    1.5031389190   -1.3359398876
O        5.2174785132   -2.2799525332   -3.3256470870
H        6.0129109038   -1.7055143668   -3.2862633384
H        5.5439745568   -3.1851800815   -3.3007881587
O        7.1762542250   -0.3969389362   -2.9504275519
H        7.4101362518    0.1797447550   -3.6857323682
H        6.6843668952    0.1714173008   -2.3027706901
O        3.0090826431   -1.7772624919    0.8565612824
H        3.2254170188   -2.4907097254    1.4667482200
H        2.0852099209   -1.9191293053    0.6029016765
O       -0.7154256556    1.7478323695   -3.6087693125
H       -0.9116499616    2.6538339593   -3.3427552517
H       -1.1487859809    1.1912369025   -2.9464254363
