18   
From 1-reactant-freq.out: Frame 1 / 109, Energy=    -571.7214748575
C       -1.8310214522   -0.1958348186   -0.7486908915
C       -0.9103285446    0.9847723850   -0.4513953136
H       -1.7243565447   -0.9776491887    0.0068528374
H       -2.8716328972    0.1450207973   -0.7520132615
H       -1.5927420006   -0.6147295505   -1.7292096772
C        0.5744653544    0.6238115441   -0.5020709115
C        0.9942533886   -0.4383826138    0.5126724987
H        0.8086734225    0.2821889328   -1.5145661707
H        1.1266033858    1.5483869576   -0.3220294983
H        2.0738546566   -0.3479303925    0.6900814270
H        0.5005160546   -0.2593155339    1.4712443461
O       -1.0848044670    1.9839203969   -1.4673172671
O       -1.3363003831    1.4551949788    0.7968854487
O       -0.5111312933    2.5386292614    1.3064790508
H       -2.0111853376    2.2553832625   -1.4359521381
C        0.7707016694   -1.9029593080    0.0979740485
O        0.3858010661   -2.7003222634    0.9965768585
O        1.0286032942   -2.2214150122   -1.0919704735
