18   
From 2-transition-freq.out: Frame 1 / 109, Energy=    -571.6226075435
C       -1.9184795806   -0.0468847562   -1.0057660185
C       -0.9473415160    1.0211630889   -0.4883860692
H       -1.8189836252   -0.9442044694   -0.3930781492
H       -2.9498702270    0.3172261984   -0.9575925233
H       -1.6710053756   -0.2878792059   -2.0428213631
C        0.5810088305    0.3719256103   -0.5636990657
C        0.8940676310   -0.6884984188    0.3549054581
H        0.6489185973    0.0616764388   -1.6106055685
H        1.1523825288    1.2864865970   -0.3905173703
H        1.2229980474   -0.4564635167    1.3648092446
H        0.3279918205    1.0047767760    2.0352132715
O       -0.8702647141    2.1253290129   -1.4107473678
O       -1.3063096785    1.4001330959    0.7169650186
O        0.1324282741    1.9091517413    1.7612181498
H       -1.6852541268    2.6325105711   -1.3064064810
C        0.8649734907   -2.1103540959    0.0217223555
O        1.1929060794   -2.9455306353    0.9412188270
O        0.5364825440   -2.4870190325   -1.1544543484
