18   
From 2-transition-freq.out: Frame 1 / 109, Energy=    -571.7674079192
C        0.3664798086    1.1551214269    0.0576796022
C        0.6103403639    2.1821852350    1.1785385633
O        0.8536359525    1.7702106422    2.3390190511
O        0.5158348236    3.3895186453    0.8302451536
C        0.7381808247   -0.2624169251    0.3842074386
H        0.9123317701    1.4772212765   -0.8303019788
H       -0.6983935773    1.2147433095   -0.1887039180
O       -0.9401830427   -0.9219601564    0.8863847027
H        1.0760411798   -0.5082898414    1.3727615738
H        0.8723760000   -0.9834364555   -0.4028092221
C       -1.7905787909   -1.4318303269    0.0668228704
C       -1.4291315815   -1.4934214626   -1.4080526205
H       -2.2937753840   -1.8166168073   -1.9869695112
H       -0.6142611693   -2.2087824430   -1.5569018239
H       -1.0859977279   -0.5210599520   -1.7699473274
O       -2.8842624046   -1.8808842616    0.4440941846
O        2.7892126674    0.0279660175    0.0325006075
H        3.0021502878    0.8117320784    0.5514326541
