19   
From 2-transition-freq.out: Frame 1 / 115, Energy=    -646.9494568544
C       -0.4166951826   -0.0073090837   -1.9094325931
C       -1.4492418791    0.6180131287   -2.8513165532
O       -2.2466278132   -0.1648805592   -3.4365242659
O       -1.4628172970    1.8755132969   -2.9497790437
C       -1.0242623554   -0.2152913510   -0.5112313932
H        0.4563237693    0.6471419249   -1.8255826959
H       -0.0968220908   -0.9782611663   -2.3035072594
O       -0.1548252428   -0.8224155391    0.3928600504
H       -1.9390473798   -0.8225617639   -0.6216644959
H       -1.3457607540    0.7698620345   -0.1246409064
C        0.6487346034    0.5423577214    1.6226902913
C        0.9202177981   -0.4612387654    2.7161990474
H        1.5336845893    0.0359002039    3.4762052848
H        1.4474610717   -1.3408494944    2.3528619407
H       -0.0278786800   -0.7575894485    3.1648705552
O       -0.1168944961    1.4898126830    1.7686166891
O        1.7295398178    0.8164793201    0.7636092769
O        2.2391748605   -0.4050178160    0.2230158165
H        1.3057366607   -0.8196653256    0.0527502544
