21   
From 1-reactant-freq.out: Frame 1 / 127, Energy=    -723.0928412420
C        0.4498159202    1.1922410740   -3.2709558192
O        0.2062437699    2.3612039992   -3.6812360169
O        0.9119312320    0.2557427828   -3.9729523743
C        0.1181956199    0.9161064348   -1.7920719326
H       -0.9736597233    0.9091300668   -1.7197448983
H        0.4503597865    1.7773984891   -1.2104901404
C        0.6993540473   -0.3722607612   -1.2235537857
H        1.7863257824   -0.3666794617   -1.3280459360
H        0.3294066881   -1.2270045495   -1.7927141959
C        0.3925673896   -0.6388580219    0.2474403013
C       -1.0999291698   -0.7760794151    0.5408408401
H       -1.6347730854    0.1311033842    0.2597090060
H       -1.2439088984   -0.9518107009    1.6058015072
H       -1.5170005374   -1.6151596245   -0.0187456023
O        1.0674390802   -1.8280767572    0.6386526602
O        0.9584004234    0.4357977033    1.0013413374
H        1.2653142922   -1.5864804552    1.5817527313
O        1.1304677543   -0.0301325763    2.3902676553
H       -0.2020436058    0.1830829591    3.4428336611
O       -0.9015816971    0.2127581748    4.1488879546
O       -1.0901688209    1.6827209891    4.3622166197
