18   
From 3-product-freq.out: Frame 1 / 109, Energy=    -571.8551352530
C        0.3858673364    1.1444507253    0.0931625737
C        0.7479832851    2.5849591028    0.4853677126
O        1.9661180698    2.8286165162    0.7424118058
O       -0.1731973909    3.4331060099    0.4969938468
C        1.3462786922    0.0916854964    0.6331551083
H        0.3796168295    1.1030963116   -1.0042757755
H       -0.6333906105    0.9287665114    0.4264264133
O       -1.7900894399   -2.0735425675    1.1399082494
H        1.3015147371    0.0809648318    1.7326588541
H        1.0557435998   -0.9022571484    0.2800700329
C       -2.1484099789   -1.5316373333    0.0613362249
C       -1.4359220873   -1.9529926247   -1.2264901148
H       -2.1719210596   -2.2957706470   -1.9597029076
H       -0.7060884972   -2.7442105192   -1.0461620168
H       -0.9263823780   -1.0852284445   -1.6571919820
O       -3.0503207331   -0.6586583559   -0.0519885047
O        2.6843484763    0.3281381718    0.2012204409
H        2.7888429166    1.2914996857    0.3626021976
