18   
From 3-product-freq.out: Frame 1 / 109, Energy=    -571.8194680154
C       -0.3906283094   -1.8927905955    0.6214243549
C       -1.4148732130   -2.9856519380    0.2809366652
O       -1.1905336331   -4.1271532604    0.7675636889
O       -2.3989423735   -2.6813283251   -0.4407648720
C       -0.6263622393   -0.5537355214   -0.0533520194
H        0.6050988107   -2.2713121508    0.3632706533
H       -0.3957971816   -1.7647850507    1.7109633085
O        0.3882184441    0.3393687127    0.3710363162
H       -1.6166965259   -0.1647288243    0.2086875255
H       -0.5985150038   -0.6729633633   -1.1446191651
C        0.4110348543    1.6184592665   -0.3431447319
C        1.5171860332    2.4015965277    0.3717647281
H        1.2235437697    2.5795350813    1.4099368497
H        1.6508564642    3.3636284614   -0.1297561270
H        2.4670302688    1.8587474895    0.3600431589
O       -0.7551267970    2.2064199265   -0.4263152044
O        0.9406358012    1.3083037193   -1.6784979470
H        0.1742804412    1.4328026688   -2.2513115232
