18   
From 1-reactant-freq.out: Frame 1 / 109, Energy=    -571.8142956476
C       -1.5178854514   -0.0283642891    0.5759557695
C        0.2057517228    0.6374386224   -0.9106966901
C        1.1033299788   -0.0121614035   -1.9357972493
H       -0.4062673118    1.4276411345   -1.3542945071
H        0.7824392374    1.0514729703   -0.0819866210
H        1.7020215162    0.7773466924   -2.4066561717
O       -0.6784452464   -0.3883704729   -0.3959347158
C       -2.3665865351   -1.1810588394    1.0325207710
H       -3.0458087513   -0.8532297096    1.8178725741
H       -2.9342699984   -1.5748418960    0.1857639995
H       -1.7225145584   -1.9819063138    1.4046270501
O       -1.5730511352    1.0986741653    1.0231862026
H        0.5078300706   -0.4764440119   -2.7269476219
C        2.0915527804   -1.0448562020   -1.3631982181
O        2.4715895196   -1.9504925740   -2.1500995982
O        2.4728232479   -0.8923432441   -0.1756195532
O        3.7787661804    2.2239690468   -0.2960481101
H        3.3677747961    1.3523399108   -0.2601047289
