18   
From 3-product-freq.out: Frame 1 / 109, Energy=    -571.8381388133
C       -2.8588495558    1.2067830004    0.1650521128
C        0.7233869631    0.4713561358    0.3733310110
C        0.5026579567   -0.5618640726   -0.4322614435
H       -0.0672869194    1.1736241922    0.6234325250
H        1.7032141674    0.6351949167    0.8138859337
H        3.4735256479    1.7372753438   -0.7607152782
O       -2.9702182449    1.1864567810   -1.0893165834
C       -3.0972907023   -0.1039574054    0.9194435435
H       -2.4208325321   -0.1872298332    1.7734465132
H       -4.1225751679   -0.1011467851    1.3054377618
H       -2.9786944538   -0.9691544189    0.2642853981
O       -2.5881172843    2.2245872685    0.8570147165
H       -0.4856514307   -0.7333317435   -0.8537952754
C        1.5490692601   -1.5975523632   -0.7836206484
O        1.1286959316   -2.6529240494   -1.3135402445
O        2.7593056734   -1.3457590054   -0.5159054359
O        4.0628211923    0.9900541305   -0.9087414532
H        3.5144395902    0.1867406283   -0.7349256637
